1
9
.tran 50n 100m
6
2
R1
I
2
R2
I
1
/Vcentre
V
1
/Vin
V
1
/Vout
V
1
Net-(R1-Pad1)
V
