.MODEL MBR230LS D (
+LEVEL    = 1              TNOM     = 27             IS       = 3.851e-05      
+ISW      = 1e-18          RS       = 0.0791424      N        = 1.02175        
+BV       = 37             IBV      = 0.001          CJO      = 3.28592e-10    
+VJ       = 0.5            MJ       = 0.5            FC       = 0.5            
+CJSW     = 1e-10          VJSW     = 0.8            MJSW     = 0.3            
+FCSW     = 0.5            TT       = 0              KF       = 0              
+AF       = 1              XTI      = 2              EG       = 1.17           
+TRS1     = 0.001          TRS2     = 0.000229059 )