**************************************************
* Manufacturer:       Wurth Elektronik 
* Kinds:      Inductor
* Matchcode:          WE-PD
* Library Type:       Pspice
* Version:        rev20a
* Created/modified by:    Paul      
* Date and Time   :       8/23/2019
* Team:           eiSos EDA Service  
* Contact:        libraries@we-online.com
**************************************************
.subckt WE-PD_1030_7447713015_1u5 1 2
Rp 1 2 672.674
Cp 1 2 3.599p
Rs 1 N3 0.0137
L1 N3 2 1.411u
.ends WE-PD_1030_7447713015_1u5
*******
.subckt WE-PD_1030_7447713022_2u2 1 2
Rp 1 2 945.477
Cp 1 2 2.803p
Rs 1 N3 0.0168
L1 N3 2 2.074u
.ends WE-PD_1030_7447713022_2u2
*******
.subckt WE-PD_1030_7447713033_3u3 1 2
Rp 1 2 1251
Cp 1 2 3.775p
Rs 1 N3 0.0204
L1 N3 2 3.005u
.ends WE-PD_1030_7447713033_3u3
*******
.subckt WE-PD_1030_7447713047_4u7 1 2
Rp 1 2 1701
Cp 1 2 4.595p
Rs 1 N3 0.026
L1 N3 2 4.271u
.ends WE-PD_1030_7447713047_4u7
*******
.subckt WE-PD_1030_7447713082_8u2 1 2
Rp 1 2 3617
Cp 1 2 4.502p
Rs 1 N3 0.041
L1 N3 2 7.276u
.ends WE-PD_1030_7447713082_8u2
*******
.subckt WE-PD_1030_7447713100_10u 1 2
Rp 1 2 3554
Cp 1 2 4.934p
Rs 1 N3 0.0515
L1 N3 2 9.513u
.ends WE-PD_1030_7447713100_10u
*******
.subckt WE-PD_1030_7447713101_100u 1 2
Rp 1 2 30774
Cp 1 2 5.57p
Rs 1 N3 0.398
L1 N3 2 90.236u
.ends WE-PD_1030_7447713101_100u
*******
.subckt WE-PD_1030_7447713102_1000u 1 2
Rp 1 2 121895
Cp 1 2 8.544p
Rs 1 N3 4
L1 N3 2 957.63u
.ends WE-PD_1030_7447713102_1000u
*******
.subckt WE-PD_1030_7447713121_120u 1 2
Rp 1 2 40013
Cp 1 2 6.019p
Rs 1 N3 0.498
L1 N3 2 108.186u
.ends WE-PD_1030_7447713121_120u
*******
.subckt WE-PD_1030_7447713150_15u 1 2
Rp 1 2 5482
Cp 1 2 5.206p
Rs 1 N3 0.074
L1 N3 2 14.23u
.ends WE-PD_1030_7447713150_15u
*******
.subckt WE-PD_1030_7447713151_150u 1 2
Rp 1 2 46224
Cp 1 2 6.026p
Rs 1 N3 0.57
L1 N3 2 131.081u
.ends WE-PD_1030_7447713151_150u
*******
.subckt WE-PD_1030_7447713220_22u 1 2
Rp 1 2 8834
Cp 1 2 4.433p
Rs 1 N3 0.111
L1 N3 2 22.176u
.ends WE-PD_1030_7447713220_22u
*******
.subckt WE-PD_1030_7447713330_33u 1 2
Rp 1 2 12173
Cp 1 2 5.094p
Rs 1 N3 0.17
L1 N3 2 33.747u
.ends WE-PD_1030_7447713330_33u
*******
.subckt WE-PD_1030_7447713331_330u 1 2
Rp 1 2 72960
Cp 1 2 6.929p
Rs 1 N3 1.23
L1 N3 2 300.245u
.ends WE-PD_1030_7447713331_330u
*******
.subckt WE-PD_1030_7447713470_47u 1 2
Rp 1 2 13604
Cp 1 2 5.295p
Rs 1 N3 0.207
L1 N3 2 44.871u
.ends WE-PD_1030_7447713470_47u
*******
.subckt WE-PD_1030_7447713471_470u 1 2
Rp 1 2 88623
Cp 1 2 7.58p
Rs 1 N3 1.85
L1 N3 2 453.905u
.ends WE-PD_1030_7447713471_470u
*******
.subckt WE-PD_1030_7447713680_68u 1 2
Rp 1 2 19479
Cp 1 2 5.574p
Rs 1 N3 0.275
L1 N3 2 62.353u
.ends WE-PD_1030_7447713680_68u
*******
.subckt WE-PD_1030_7447713820_82u 1 2
Rp 1 2 25005
Cp 1 2 4.979p
Rs 1 N3 0.349
L1 N3 2 77.094u
.ends WE-PD_1030_7447713820_82u
*******
.subckt WE-PD_1050_7447714015_1u5 1 2
Rp 1 2 696.48
Cp 1 2 3.69p
Rs 1 N3 0.00555
L1 N3 2 1.319u
.ends WE-PD_1050_7447714015_1u5
*******
.subckt WE-PD_1050_7447714022_2u2 1 2
Rp 1 2 1088
Cp 1 2 4.313p
Rs 1 N3 0.0068
L1 N3 2 2.019u
.ends WE-PD_1050_7447714022_2u2
*******
.subckt WE-PD_1050_7447714033_3u3 1 2
Rp 1 2 1748
Cp 1 2 4.94p
Rs 1 N3 0.0089
L1 N3 2 2.946u
.ends WE-PD_1050_7447714033_3u3
*******
.subckt WE-PD_1050_7447714047_4u7 1 2
Rp 1 2 2469
Cp 1 2 6.027p
Rs 1 N3 0.0104
L1 N3 2 4.148u
.ends WE-PD_1050_7447714047_4u7
*******
.subckt WE-PD_1050_7447714056_5u6 1 2
Rp 1 2 3639
Cp 1 2 6.084p
Rs 1 N3 0.012
L1 N3 2 5.401u
.ends WE-PD_1050_7447714056_5u6
*******
.subckt WE-PD_1050_7447714068_6u8 1 2
Rp 1 2 4349
Cp 1 2 7.2p
Rs 1 N3 0.0185
L1 N3 2 6.801u
.ends WE-PD_1050_7447714068_6u8
*******
.subckt WE-PD_1050_7447714100_10u 1 2
Rp 1 2 6553
Cp 1 2 5.759p
Rs 1 N3 0.023
L1 N3 2 10.478u
.ends WE-PD_1050_7447714100_10u
*******
.subckt WE-PD_1050_7447714101_100u 1 2
Rp 1 2 33721
Cp 1 2 8.231p
Rs 1 N3 0.165
L1 N3 2 93.461u
.ends WE-PD_1050_7447714101_100u
*******
.subckt WE-PD_1050_7447714102_1000u 1 2
Rp 1 2 180643
Cp 1 2 7.59p
Rs 1 N3 1.86
L1 N3 2 908.799u
.ends WE-PD_1050_7447714102_1000u
*******
.subckt WE-PD_1050_7447714150_15u 1 2
Rp 1 2 9843
Cp 1 2 7.012p
Rs 1 N3 0.036
L1 N3 2 14.644u
.ends WE-PD_1050_7447714150_15u
*******
.subckt WE-PD_1050_7447714151_150u 1 2
Rp 1 2 53063
Cp 1 2 9.967p
Rs 1 N3 0.251
L1 N3 2 138.62u
.ends WE-PD_1050_7447714151_150u
*******
.subckt WE-PD_1050_7447714220_22u 1 2
Rp 1 2 12907
Cp 1 2 8.49p
Rs 1 N3 0.042
L1 N3 2 19.015u
.ends WE-PD_1050_7447714220_22u
*******
.subckt WE-PD_1050_7447714221_220u 1 2
Rp 1 2 61488
Cp 1 2 6.439p
Rs 1 N3 0.366
L1 N3 2 196.516u
.ends WE-PD_1050_7447714221_220u
*******
.subckt WE-PD_1050_7447714330_33u 1 2
Rp 1 2 18157
Cp 1 2 6.736p
Rs 1 N3 0.066
L1 N3 2 30.715u
.ends WE-PD_1050_7447714330_33u
*******
.subckt WE-PD_1050_7447714331_330u 1 2
Rp 1 2 79107
Cp 1 2 9.655p
Rs 1 N3 0.655
L1 N3 2 325.418u
.ends WE-PD_1050_7447714331_330u
*******
.subckt WE-PD_1050_7447714470_47u 1 2
Rp 1 2 25556
Cp 1 2 7.453p
Rs 1 N3 0.0825
L1 N3 2 45.428u
.ends WE-PD_1050_7447714470_47u
*******
.subckt WE-PD_1050_7447714471_470u 1 2
Rp 1 2 77358
Cp 1 2 10.702p
Rs 1 N3 0.96
L1 N3 2 441.117u
.ends WE-PD_1050_7447714471_470u
*******
.subckt WE-PD_1050_7447714560_56u 1 2
Rp 1 2 25720
Cp 1 2 6.476p
Rs 1 N3 0.101
L1 N3 2 52.405u
.ends WE-PD_1050_7447714560_56u
*******
.subckt WE-PD_1050_7447714680_68u 1 2
Rp 1 2 32590
Cp 1 2 6.803p
Rs 1 N3 0.11
L1 N3 2 61.871u
.ends WE-PD_1050_7447714680_68u
*******
.subckt WE-PD_1050_7447714681_680u 1 2
Rp 1 2 92097
Cp 1 2 11.336p
Rs 1 N3 1.22
L1 N3 2 631.718u
.ends WE-PD_1050_7447714681_680u
*******
.subckt WE-PD_1050_7447714820_82u 1 2
Rp 1 2 33435
Cp 1 2 7.917p
Rs 1 N3 0.147
L1 N3 2 78.213u
.ends WE-PD_1050_7447714820_82u
*******
.subckt WE-PD_1210_7447709001_1u 1 2
Rp 1 2 2176.6207769
Cp 1 2 2.24744833282p
Rs 1 N3 0.0038
L1 N3 2 0.888311902286u
.ends WE-PD_1210_7447709001_1u
*******
.subckt WE-PD_1210_7447709002_2u2 1 2
Rp 1 2 4137.02857985
Cp 1 2 2.99089969563p
Rs 1 N3 0.0049
L1 N3 2 2.04316893219u
.ends WE-PD_1210_7447709002_2u2
*******
.subckt WE-PD_1210_7447709003_3u5 1 2
Rp 1 2 4975.69579666
Cp 1 2 4.15650993146p
Rs 1 N3 0.0059
L1 N3 2 3.04371144857u
.ends WE-PD_1210_7447709003_3u5
*******
.subckt WE-PD_1210_7447709004_4u7 1 2
Rp 1 2 5047
Cp 1 2 6.87p
Rs 1 N3 0.0074
L1 N3 2 3.84u
.ends WE-PD_1210_7447709004_4u7
*******
.subckt WE-PD_1210_7447709006_6u8 1 2
Rp 1 2 8250.62950059
Cp 1 2 7.73395856798p
Rs 1 N3 0.0091
L1 N3 2 6.30631538292u
.ends WE-PD_1210_7447709006_6u8
*******
.subckt WE-PD_1210_7447709100_10u 1 2
Rp 1 2 11546.6960325
Cp 1 2 7.27315529525p
Rs 1 N3 0.0129
L1 N3 2 9.52800542568u
.ends WE-PD_1210_7447709100_10u
*******
.subckt WE-PD_1210_7447709101_100u 1 2
Rp 1 2 59146
Cp 1 2 18.224p
Rs 1 N3 0.1
L1 N3 2 84u
.ends WE-PD_1210_7447709101_100u
*******
.subckt WE-PD_1210_7447709102_1000u 1 2
Rp 1 2 103052
Cp 1 2 21.42p
Rs 1 N3 0.93
L1 N3 2 856.5u
.ends WE-PD_1210_7447709102_1000u
*******
.subckt WE-PD_1210_7447709150_15u 1 2
Rp 1 2 15765.1384684
Cp 1 2 7.13382716865p
Rs 1 N3 0.0207
L1 N3 2 12.6985405468u
.ends WE-PD_1210_7447709150_15u
*******
.subckt WE-PD_1210_7447709151_150u 1 2
Rp 1 2 82598.270635
Cp 1 2 14.2781138855p
Rs 1 N3 0.151
L1 N3 2 84.3125748608u
.ends WE-PD_1210_7447709151_150u
*******
.subckt WE-PD_1210_7447709152_1500u 1 2
Rp 1 2 171070
Cp 1 2 25.56p
Rs 1 N3 1.8
L1 N3 2 1303u
.ends WE-PD_1210_7447709152_1500u
*******
.subckt WE-PD_1210_7447709220_22u 1 2
Rp 1 2 13263
Cp 1 2 14.26p
Rs 1 N3 0.0233
L1 N3 2 18.65u
.ends WE-PD_1210_7447709220_22u
*******
.subckt WE-PD_1210_7447709221_220u 1 2
Rp 1 2 91179.4137734
Cp 1 2 16.3697778895p
Rs 1 N3 0.193
L1 N3 2 125.657039982u
.ends WE-PD_1210_7447709221_220u
*******
.subckt WE-PD_1210_7447709222_2200u 1 2
Rp 1 2 200000
Cp 1 2 30p
Rs 1 N3 3.25
L1 N3 2 1809u
.ends WE-PD_1210_7447709222_2200u
*******
.subckt WE-PD_1210_7447709270_27u 1 2
Rp 1 2 29129.0712954
Cp 1 2 13.9416435215p
Rs 1 N3 0.03
L1 N3 2 23.0051014632u
.ends WE-PD_1210_7447709270_27u
*******
.subckt WE-PD_1210_7447709271_270u 1 2
Rp 1 2 99265.0050729
Cp 1 2 18.0619283051p
Rs 1 N3 0.248
L1 N3 2 189.016138029u
.ends WE-PD_1210_7447709271_270u
*******
.subckt WE-PD_1210_7447709330_33u 1 2
Rp 1 2 30639.6783453
Cp 1 2 13.0681350616p
Rs 1 N3 0.0368
L1 N3 2 28.0782778599u
.ends WE-PD_1210_7447709330_33u
*******
.subckt WE-PD_1210_7447709331_330u 1 2
Rp 1 2 90525.0521166
Cp 1 2 20.1460207887p
Rs 1 N3 0.363
L1 N3 2 217.992497883u
.ends WE-PD_1210_7447709331_330u
*******
.subckt WE-PD_1210_7447709390_39u 1 2
Rp 1 2 36480.6887288
Cp 1 2 16.6752475935p
Rs 1 N3 0.0439
L1 N3 2 42.4250261651u
.ends WE-PD_1210_7447709390_39u
*******
.subckt WE-PD_1210_7447709470_47u 1 2
Rp 1 2 43179.7160489
Cp 1 2 15.5579429534p
Rs 1 N3 0.0459
L1 N3 2 38.0441176839u
.ends WE-PD_1210_7447709470_47u
*******
.subckt WE-PD_1210_7447709471_470u 1 2
Rp 1 2 105258.807914
Cp 1 2 20.5928638778p
Rs 1 N3 0.437
L1 N3 2 276.957578674u
.ends WE-PD_1210_7447709471_470u
*******
.subckt WE-PD_1210_7447709680_68u 1 2
Rp 1 2 65987.2147297
Cp 1 2 15.6960659854p
Rs 1 N3 0.0686
L1 N3 2 55.0105245384u
.ends WE-PD_1210_7447709680_68u
*******
.subckt WE-PD_1210_7447709681_680u 1 2
Rp 1 2 120411.679361
Cp 1 2 19.3385293438p
Rs 1 N3 0.66
L1 N3 2 367.313466131u
.ends WE-PD_1210_7447709681_680u
*******
.subckt WE-PD_1210_7447709820_82u 1 2
Rp 1 2 58000
Cp 1 2 16.8p
Rs 1 N3 0.095
L1 N3 2 82u
.ends WE-PD_1210_7447709820_82u
*******
.subckt WE-PD_1210_7447709821_820u 1 2
Rp 1 2 117117.877304
Cp 1 2 21.7929604862p
Rs 1 N3 0.815
L1 N3 2 568.809364554u
.ends WE-PD_1210_7447709821_820u
*******
.subckt WE-PD_1245_7447715001_1u8 1 2
Rp 1 2 3556.81358598
Cp 1 2 3.49530401983p
Rs 1 N3 0.0075
L1 N3 2 1.5713563659u
.ends WE-PD_1245_7447715001_1u8
*******
.subckt WE-PD_1245_7447715002_2u5 1 2
Rp 1 2 3968.08010791
Cp 1 2 3.66763216981p
Rs 1 N3 0.0085
L1 N3 2 2.51732267391u
.ends WE-PD_1245_7447715002_2u5
*******
.subckt WE-PD_1245_7447715003_3u3 1 2
Rp 1 2 6578.47426969
Cp 1 2 4.39654551772p
Rs 1 N3 0.0115
L1 N3 2 2.88851569677u
.ends WE-PD_1245_7447715003_3u3
*******
.subckt WE-PD_1245_7447715004_4u7 1 2
Rp 1 2 8219.38035441
Cp 1 2 4.06523390514p
Rs 1 N3 0.0135
L1 N3 2 3.75692461883u
.ends WE-PD_1245_7447715004_4u7
*******
.subckt WE-PD_1245_7447715006_6u8 1 2
Rp 1 2 11078.5420015
Cp 1 2 4.29910927901p
Rs 1 N3 0.02
L1 N3 2 6.87526199363u
.ends WE-PD_1245_7447715006_6u8
*******
.subckt WE-PD_1245_7447715100_10u 1 2
Rp 1 2 15515.0080042
Cp 1 2 4.83057400324p
Rs 1 N3 0.025
L1 N3 2 9.01972200031u
.ends WE-PD_1245_7447715100_10u
*******
.subckt WE-PD_1245_7447715101_100u 1 2
Rp 1 2 96148.7175854
Cp 1 2 5.79622090066p
Rs 1 N3 0.25
L1 N3 2 80.390308916u
.ends WE-PD_1245_7447715101_100u
*******
.subckt WE-PD_1245_7447715120_12u 1 2
Rp 1 2 16500.8527686
Cp 1 2 4.85170401496p
Rs 1 N3 0.03
L1 N3 2 10.705444972u
.ends WE-PD_1245_7447715120_12u
*******
.subckt WE-PD_1245_7447715180_18u 1 2
Rp 1 2 20313.2567777
Cp 1 2 5.45940158137p
Rs 1 N3 0.037
L1 N3 2 13.0855292701u
.ends WE-PD_1245_7447715180_18u
*******
.subckt WE-PD_1245_7447715220_22u 1 2
Rp 1 2 26167.9513606
Cp 1 2 5.27045194002p
Rs 1 N3 0.045
L1 N3 2 17.3598966267u
.ends WE-PD_1245_7447715220_22u
*******
.subckt WE-PD_1245_7447715221_220u 1 2
Rp 1 2 130584.615405
Cp 1 2 5.82141733606p
Rs 1 N3 0.46
L1 N3 2 167.025850479u
.ends WE-PD_1245_7447715221_220u
*******
.subckt WE-PD_1245_7447715330_33u 1 2
Rp 1 2 35410.3838309
Cp 1 2 5.06743999531p
Rs 1 N3 0.075
L1 N3 2 25.7301392598u
.ends WE-PD_1245_7447715330_33u
*******
.subckt WE-PD_1245_7447715470_47u 1 2
Rp 1 2 52874.4211867
Cp 1 2 5.23820249993p
Rs 1 N3 0.105
L1 N3 2 37.929937389u
.ends WE-PD_1245_7447715470_47u
*******
.subckt WE-PD_1245_7447715906_0u6 1 2
Rp 1 2 1308.28965673
Cp 1 2 2.223341372p
Rs 1 N3 0.0045
L1 N3 2 0.464397869128u
.ends WE-PD_1245_7447715906_0u6
*******
.subckt WE-PD_1245_7447715910_1u 1 2
Rp 1 2 2427.45429051
Cp 1 2 3.07393402306p
Rs 1 N3 0.0055
L1 N3 2 0.874032032284u
.ends WE-PD_1245_7447715910_1u
*******
.subckt WE-PD_1260_744771001_1u5 1 2
Rp 1 2 3071.23512543
Cp 1 2 4.55454792254p
Rs 1 N3 0.004
L1 N3 2 1.37437477441u
.ends WE-PD_1260_744771001_1u5
*******
.subckt WE-PD_1260_744771002_2u2 1 2
Rp 1 2 4317.50513804
Cp 1 2 4.29785401059p
Rs 1 N3 0.005
L1 N3 2 2.07040188001u
.ends WE-PD_1260_744771002_2u2
*******
.subckt WE-PD_1260_744771003_3u5 1 2
Rp 1 2 5289.07403592
Cp 1 2 5.62562543478p
Rs 1 N3 0.005
L1 N3 2 2.75026426288u
.ends WE-PD_1260_744771003_3u5
*******
.subckt WE-PD_1260_744771004_4u7 1 2
Rp 1 2 7103.51433931
Cp 1 2 5.16202854135p
Rs 1 N3 0.008
L1 N3 2 3.97683781952u
.ends WE-PD_1260_744771004_4u7
*******
.subckt WE-PD_1260_744771006_6u8 1 2
Rp 1 2 11328.6346253
Cp 1 2 5.1511526413p
Rs 1 N3 0.014
L1 N3 2 6.37108670871u
.ends WE-PD_1260_744771006_6u8
*******
.subckt WE-PD_1260_744771008_8u2 1 2
Rp 1 2 11131.1634809
Cp 1 2 5.77976287683p
Rs 1 N3 0.014
L1 N3 2 7.00701599313u
.ends WE-PD_1260_744771008_8u2
*******
.subckt WE-PD_1260_74477110_10u 1 2
Rp 1 2 12924.2119935
Cp 1 2 5.59966567469p
Rs 1 N3 0.018
L1 N3 2 7.90766724948u
.ends WE-PD_1260_74477110_10u
*******
.subckt WE-PD_1260_744771112_12u 1 2
Rp 1 2 15762.86740396
Cp 1 2 6.459722377p
Rs 1 N3 0.023
L1 N3 2 5.69433558355u
.ends WE-PD_1260_744771112_12u
*******
.subckt WE-PD_1260_744771115_15u 1 2
Rp 1 2 18606.6108855
Cp 1 2 6.59039598988p
Rs 1 N3 0.025
L1 N3 2 13.1431325726u
.ends WE-PD_1260_744771115_15u
*******
.subckt WE-PD_1260_744771118_18u 1 2
Rp 1 2 20072.4763877
Cp 1 2 6.2881495543p
Rs 1 N3 0.029
L1 N3 2 16.72759472u
.ends WE-PD_1260_744771118_18u
*******
.subckt WE-PD_1260_744771122_22u 1 2
Rp 1 2 23520.3713765
Cp 1 2 6.72462055974p
Rs 1 N3 0.031
L1 N3 2 19.9823339443u
.ends WE-PD_1260_744771122_22u
*******
.subckt WE-PD_1260_744771127_27u 1 2
Rp 1 2 29798.8134018
Cp 1 2 6.69847093457p
Rs 1 N3 0.04
L1 N3 2 25.0786910282u
.ends WE-PD_1260_744771127_27u
*******
.subckt WE-PD_1260_744771133_33u 1 2
Rp 1 2 33587.0360301
Cp 1 2 7.0411264639p
Rs 1 N3 0.049
L1 N3 2 28.9416771654u
.ends WE-PD_1260_744771133_33u
*******
.subckt WE-PD_1260_744771139_39u 1 2
Rp 1 2 40352.1308751
Cp 1 2 7.11734510831p
Rs 1 N3 0.057
L1 N3 2 34.5766890091u
.ends WE-PD_1260_744771139_39u
*******
.subckt WE-PD_1260_744771147_47u 1 2
Rp 1 2 46415.0872879
Cp 1 2 7.33194677463p
Rs 1 N3 0.072
L1 N3 2 40.1605861993u
.ends WE-PD_1260_744771147_47u
*******
.subckt WE-PD_1260_744771156_56u 1 2
Rp 1 2 50373.255717
Cp 1 2 8.05718298331p
Rs 1 N3 0.087
L1 N3 2 47.6202710664u
.ends WE-PD_1260_744771156_56u
*******
.subckt WE-PD_1260_744771168_68u 1 2
Rp 1 2 60253.8401037
Cp 1 2 7.4743212p
Rs 1 N3 0.096
L1 N3 2 26.9352697197u
.ends WE-PD_1260_744771168_68u
*******
.subckt WE-PD_1260_744771182_82u 1 2
Rp 1 2 73966.4799366
Cp 1 2 7.29887156521p
Rs 1 N3 0.129
L1 N3 2 68.0957429618u
.ends WE-PD_1260_744771182_82u
*******
.subckt WE-PD_1260_74477120_100u 1 2
Rp 1 2 89634.2367448
Cp 1 2 6.77213897413p
Rs 1 N3 0.15
L1 N3 2 82.1352126279u
.ends WE-PD_1260_74477120_100u
*******
.subckt WE-PD_1260_744771212_120u 1 2
Rp 1 2 85663.2340753
Cp 1 2 7.258621911p
Rs 1 N3 0.159
L1 N3 2 49.4775549429u
.ends WE-PD_1260_744771212_120u
*******
.subckt WE-PD_1260_744771215_150u 1 2
Rp 1 2 117056.389722
Cp 1 2 7.68777248254p
Rs 1 N3 0.185
L1 N3 2 126.13206467u
.ends WE-PD_1260_744771215_150u
*******
.subckt WE-PD_1260_744771218_180u 1 2
Rp 1 2 126004.09822
Cp 1 2 7.23940540428p
Rs 1 N3 0.242
L1 N3 2 157.83776651u
.ends WE-PD_1260_744771218_180u
*******
.subckt WE-PD_1260_744771220_220u 1 2
Rp 1 2 166589.386002
Cp 1 2 7.40058443954p
Rs 1 N3 0.29
L1 N3 2 191.53833952u
.ends WE-PD_1260_744771220_220u
*******
.subckt WE-PD_1260_744771233_330u 1 2
Rp 1 2 149080.861093
Cp 1 2 8.2009745208p
Rs 1 N3 0.442
L1 N3 2 270.036831087u
.ends WE-PD_1260_744771233_330u
*******
.subckt WE-PD_1260_744771239_390u 1 2
Rp 1 2 193660.987984
Cp 1 2 7.38849767057p
Rs 1 N3 0.59
L1 N3 2 335.99465619u
.ends WE-PD_1260_744771239_390u
*******
.subckt WE-PD_1260_74477124_470u 1 2
Rp 1 2 183456.8018814
Cp 1 2 7.351852629p
Rs 1 N3 0.66
L1 N3 2 189.189645724u
.ends WE-PD_1260_74477124_470u
*******
.subckt WE-PD_1260_74477125_560u 1 2
Rp 1 2 203054.900825
Cp 1 2 8.01211974458p
Rs 1 N3 0.69
L1 N3 2 478.04728844u
.ends WE-PD_1260_74477125_560u
*******
.subckt WE-PD_1260_74477126_680u 1 2
Rp 1 2 211748.367354
Cp 1 2 7.83687119358p
Rs 1 N3 0.88
L1 N3 2 535.105894135u
.ends WE-PD_1260_74477126_680u
*******
.subckt WE-PD_1260_744771270_270u 1 2
Rp 1 2 138369.142102
Cp 1 2 8.04867365979p
Rs 1 N3 0.338
L1 N3 2 209.226403948u
.ends WE-PD_1260_744771270_270u
*******
.subckt WE-PD_1260_74477128_820u 1 2
Rp 1 2 206476.08946
Cp 1 2 7.40612650092p
Rs 1 N3 1.025
L1 N3 2 668.573110846u
.ends WE-PD_1260_74477128_820u
*******
.subckt WE-PD_1260_74477130_1000u 1 2
Rp 1 2 245825.469797
Cp 1 2 8.24752651216p
Rs 1 N3 1.43
L1 N3 2 847.650104063u
.ends WE-PD_1260_74477130_1000u
*******
.subckt WE-PD_1280_74477001_1u2 1 2
Rp 1 2 2329
Cp 1 2 3.71p
Rs 1 N3 0.005
L1 N3 2 0.93886u
.ends WE-PD_1280_74477001_1u2
*******
.subckt WE-PD_1280_744770015_1u5 1 2
Rp 1 2 2241
Cp 1 2 5.036p
Rs 1 N3 0.006
L1 N3 2 1.292u
.ends WE-PD_1280_744770015_1u5
*******
.subckt WE-PD_1280_74477002_2u4 1 2
Rp 1 2 3879
Cp 1 2 3.23p
Rs 1 N3 0.009
L1 N3 2 2.006u
.ends WE-PD_1280_74477002_2u4
*******
.subckt WE-PD_1280_74477003_3u5 1 2
Rp 1 2 3620
Cp 1 2 5.124p
Rs 1 N3 0.011
L1 N3 2 3.544u
.ends WE-PD_1280_74477003_3u5
*******
.subckt WE-PD_1280_74477004_4u7 1 2
Rp 1 2 7007
Cp 1 2 3.922p
Rs 1 N3 0.012
L1 N3 2 4.722u
.ends WE-PD_1280_74477004_4u7
*******
.subckt WE-PD_1280_74477005_5u6 1 2
Rp 1 2 5511
Cp 1 2 4.999p
Rs 1 N3 0.008
L1 N3 2 5.164u
.ends WE-PD_1280_74477005_5u6
*******
.subckt WE-PD_1280_74477006_6u1 1 2
Rp 1 2 8487
Cp 1 2 5.38p
Rs 1 N3 0.015
L1 N3 2 5.87u
.ends WE-PD_1280_74477006_6u1
*******
.subckt WE-PD_1280_74477007_7u6 1 2
Rp 1 2 5744
Cp 1 2 6.713p
Rs 1 N3 0.016
L1 N3 2 6.608u
.ends WE-PD_1280_74477007_7u6
*******
.subckt WE-PD_1280_74477008_0u75 1 2
Rp 1 2 1844
Cp 1 2 3.543p
Rs 1 N3 0.0033
L1 N3 2 0.699257u
.ends WE-PD_1280_74477008_0u75
*******
.subckt WE-PD_1280_74477009_0u47 1 2
Rp 1 2 1045
Cp 1 2 3.261p
Rs 1 N3 0.0029
L1 N3 2 0.416471u
.ends WE-PD_1280_74477009_0u47
*******
.subckt WE-PD_1280_74477010_10u 1 2
Rp 1 2 5267
Cp 1 2 7.458p
Rs 1 N3 0.019
L1 N3 2 8.205u
.ends WE-PD_1280_74477010_10u
*******
.subckt WE-PD_1280_744770112_12u 1 2
Rp 1 2 9126
Cp 1 2 6.583p
Rs 1 N3 0.021
L1 N3 2 9.261u
.ends WE-PD_1280_744770112_12u
*******
.subckt WE-PD_1280_744770115_15u 1 2
Rp 1 2 10300
Cp 1 2 9.719p
Rs 1 N3 0.024
L1 N3 2 13.004u
.ends WE-PD_1280_744770115_15u
*******
.subckt WE-PD_1280_744770118_18u 1 2
Rp 1 2 17092
Cp 1 2 10.3p
Rs 1 N3 0.032
L1 N3 2 14.571u
.ends WE-PD_1280_744770118_18u
*******
.subckt WE-PD_1280_744770122_22u 1 2
Rp 1 2 14854
Cp 1 2 10.502p
Rs 1 N3 0.033
L1 N3 2 19.137u
.ends WE-PD_1280_744770122_22u
*******
.subckt WE-PD_1280_744770127_27u 1 2
Rp 1 2 17153
Cp 1 2 11.672p
Rs 1 N3 0.035
L1 N3 2 21.53u
.ends WE-PD_1280_744770127_27u
*******
.subckt WE-PD_1280_744770133_33u 1 2
Rp 1 2 20394
Cp 1 2 9.958p
Rs 1 N3 0.047
L1 N3 2 26.938u
.ends WE-PD_1280_744770133_33u
*******
.subckt WE-PD_1280_744770139_39u 1 2
Rp 1 2 20513
Cp 1 2 13.276p
Rs 1 N3 0.053
L1 N3 2 32.19u
.ends WE-PD_1280_744770139_39u
*******
.subckt WE-PD_1280_744770147_47u 1 2
Rp 1 2 21893
Cp 1 2 11.661p
Rs 1 N3 0.076
L1 N3 2 37.341u
.ends WE-PD_1280_744770147_47u
*******
.subckt WE-PD_1280_744770156_56u 1 2
Rp 1 2 20890
Cp 1 2 13.051p
Rs 1 N3 0.085
L1 N3 2 44.727u
.ends WE-PD_1280_744770156_56u
*******
.subckt WE-PD_1280_744770168_68u 1 2
Rp 1 2 41005
Cp 1 2 12.595p
Rs 1 N3 0.09
L1 N3 2 54.312u
.ends WE-PD_1280_744770168_68u
*******
.subckt WE-PD_1280_744770182_82u 1 2
Rp 1 2 42884
Cp 1 2 11.589p
Rs 1 N3 0.086
L1 N3 2 70.178u
.ends WE-PD_1280_744770182_82u
*******
.subckt WE-PD_1280_74477020_100u 1 2
Rp 1 2 42177
Cp 1 2 12.322p
Rs 1 N3 0.102
L1 N3 2 80.533u
.ends WE-PD_1280_74477020_100u
*******
.subckt WE-PD_1280_744770215_150u 1 2
Rp 1 2 75110
Cp 1 2 15.31p
Rs 1 N3 0.136
L1 N3 2 121.5u
.ends WE-PD_1280_744770215_150u
*******
.subckt WE-PD_1280_744770218_180u 1 2
Rp 1 2 61053
Cp 1 2 12.723p
Rs 1 N3 0.188
L1 N3 2 146.379u
.ends WE-PD_1280_744770218_180u
*******
.subckt WE-PD_1280_744770222_220u 1 2
Rp 1 2 74234
Cp 1 2 13.056p
Rs 1 N3 0.247
L1 N3 2 183.882u
.ends WE-PD_1280_744770222_220u
*******
.subckt WE-PD_1280_744770233_330u 1 2
Rp 1 2 75382
Cp 1 2 14.039p
Rs 1 N3 0.349
L1 N3 2 265.972u
.ends WE-PD_1280_744770233_330u
*******
.subckt WE-PD_1280_744770247_470u 1 2
Rp 1 2 94096
Cp 1 2 13.376p
Rs 1 N3 0.496
L1 N3 2 366.491u
.ends WE-PD_1280_744770247_470u
*******
.subckt WE-PD_1280_744770256_560u 1 2
Rp 1 2 89956
Cp 1 2 14.069p
Rs 1 N3 0.593
L1 N3 2 464.103u
.ends WE-PD_1280_744770256_560u
*******
.subckt WE-PD_1280_744770268_680u 1 2
Rp 1 2 97368
Cp 1 2 13.87p
Rs 1 N3 0.84
L1 N3 2 547.14u
.ends WE-PD_1280_744770268_680u
*******
.subckt WE-PD_1280_744770282_820u 1 2
Rp 1 2 123359
Cp 1 2 14.455p
Rs 1 N3 0.936
L1 N3 2 684.812u
.ends WE-PD_1280_744770282_820u
*******
.subckt WE-PD_1280_74477030_1000u 1 2
Rp 1 2 116866
Cp 1 2 13.612p
Rs 1 N3 1.04
L1 N3 2 828.952u
.ends WE-PD_1280_74477030_1000u
*******
.subckt WE-PD_1510_7447704150_15u 1 2
Rp 1 2 11219
Cp 1 2 4.694p
Rs 1 N3 0.0195
L1 N3 2 12.92u
.ends WE-PD_1510_7447704150_15u
*******
.subckt WE-PD_1510_7447704220_22u 1 2
Rp 1 2 13326
Cp 1 2 9.74p
Rs 1 N3 0.025
L1 N3 2 19.837u
.ends WE-PD_1510_7447704220_22u
*******
.subckt WE-PD_1510_7447704471_470u 1 2
Rp 1 2 55373
Cp 1 2 18.976p
Rs 1 N3 0.5
L1 N3 2 420.815u
.ends WE-PD_1510_7447704471_470u
*******
.subckt WE-PD_6033_7447785001_1u 1 2
Rp 1 2 2216.77027065
Cp 1 2 0.857843400666p
Rs 1 N3 0.031
L1 N3 2 0.967255025011u
.ends WE-PD_6033_7447785001_1u
*******
.subckt WE-PD_6033_7447785002_2u2 1 2
Rp 1 2 4378.30426868
Cp 1 2 1.81548178904p
Rs 1 N3 0.043
L1 N3 2 2.15314312624u
.ends WE-PD_6033_7447785002_2u2
*******
.subckt WE-PD_6033_7447785003_3u3 1 2
Rp 1 2 5378.14539148
Cp 1 2 2.0293197902p
Rs 1 N3 0.043
L1 N3 2 2.7563697661u
.ends WE-PD_6033_7447785003_3u3
*******
.subckt WE-PD_6033_7447785004_4u7 1 2
Rp 1 2 6419.16347886
Cp 1 2 2.18658481122p
Rs 1 N3 0.06
L1 N3 2 4.16756573005u
.ends WE-PD_6033_7447785004_4u7
*******
.subckt WE-PD_6033_7447785006_6u8 1 2
Rp 1 2 8506.21069778
Cp 1 2 2.12954534656p
Rs 1 N3 0.079
L1 N3 2 6.05071959927u
.ends WE-PD_6033_7447785006_6u8
*******
.subckt WE-PD_6033_744778510_10u 1 2
Rp 1 2 12213.3283534
Cp 1 2 2.46060321425p
Rs 1 N3 0.1
L1 N3 2 8.79321625609u
.ends WE-PD_6033_744778510_10u
*******
.subckt WE-PD_6033_7447785115_15u 1 2
Rp 1 2 13553.342485
Cp 1 2 2.64078545593p
Rs 1 N3 0.165
L1 N3 2 14.7022745416u
.ends WE-PD_6033_7447785115_15u
*******
.subckt WE-PD_6033_7447785122_22u 1 2
Rp 1 2 21477.817611
Cp 1 2 2.33541671451p
Rs 1 N3 0.21
L1 N3 2 19.4251211974u
.ends WE-PD_6033_7447785122_22u
*******
.subckt WE-PD_6033_7447785127_27u 1 2
Rp 1 2 18720
Cp 1 2 2.76p
Rs 1 N3 0.3
L1 N3 2 25.123u
.ends WE-PD_6033_7447785127_27u
*******
.subckt WE-PD_6033_7447785133_33u 1 2
Rp 1 2 24630
Cp 1 2 2.39p
Rs 1 N3 0.34
L1 N3 2 30.423u
.ends WE-PD_6033_7447785133_33u
*******
.subckt WE-PD_6033_7447785147_47u 1 2
Rp 1 2 33526.9561318
Cp 1 2 2.43213501888p
Rs 1 N3 0.5
L1 N3 2 43.1174628648u
.ends WE-PD_6033_7447785147_47u
*******
.subckt WE-PD_6033_744778520_100u 1 2
Rp 1 2 61685.068896
Cp 1 2 2.81516160101p
Rs 1 N3 0.95
L1 N3 2 94.2316542955u
.ends WE-PD_6033_744778520_100u
*******
.subckt WE-PD_6050_7447786001_1u 1 2
Rp 1 2 2037.89824727
Cp 1 2 0.663634817p
Rs 1 N3 0.028
L1 N3 2 0.947508694023u
.ends WE-PD_6050_7447786001_1u
*******
.subckt WE-PD_6050_7447786002_2u2 1 2
Rp 1 2 3873.12288939
Cp 1 2 0.888176917776p
Rs 1 N3 0.04
L1 N3 2 2.10110600258u
.ends WE-PD_6050_7447786002_2u2
*******
.subckt WE-PD_6050_7447786004_4u7 1 2
Rp 1 2 6482.96246684
Cp 1 2 2.13619859583p
Rs 1 N3 0.057
L1 N3 2 4.35584118762u
.ends WE-PD_6050_7447786004_4u7
*******
.subckt WE-PD_6050_7447786006_6u8 1 2
Rp 1 2 7197.76906562
Cp 1 2 2.28699835088p
Rs 1 N3 0.062
L1 N3 2 6.4423583094u
.ends WE-PD_6050_7447786006_6u8
*******
.subckt WE-PD_6050_7447786008_8u2 1 2
Rp 1 2 9510.40662457
Cp 1 2 2.2670543677p
Rs 1 N3 0.066
L1 N3 2 7.52568588616u
.ends WE-PD_6050_7447786008_8u2
*******
.subckt WE-PD_6050_744778610_10u 1 2
Rp 1 2 10586.7671579
Cp 1 2 2.53999984512p
Rs 1 N3 0.074
L1 N3 2 8.34245072542u
.ends WE-PD_6050_744778610_10u
*******
.subckt WE-PD_6050_7447786122_22u 1 2
Rp 1 2 17374.7513097
Cp 1 2 5.64102666619p
Rs 1 N3 0.098
L1 N3 2 19.6300919502u
.ends WE-PD_6050_7447786122_22u
*******
.subckt WE-PD_6050_7447786147_47u 1 2
Rp 1 2 35068.1701337
Cp 1 2 5.79515468172p
Rs 1 N3 0.26
L1 N3 2 42.9111231439u
.ends WE-PD_6050_7447786147_47u
*******
.subckt WE-PD_7332_744778001_1u 1 2
Rp 1 2 2166.12668275
Cp 1 2 2.47067045874p
Rs 1 N3 0.009
L1 N3 2 0.773397441523u
.ends WE-PD_7332_744778001_1u
*******
.subckt WE-PD_7332_744778002_2u2 1 2
Rp 1 2 4984.65903378
Cp 1 2 2.66299907004p
Rs 1 N3 0.014
L1 N3 2 2.09435585344u
.ends WE-PD_7332_744778002_2u2
*******
.subckt WE-PD_7332_744778003_3u3 1 2
Rp 1 2 6426.52613323
Cp 1 2 2.99661324441p
Rs 1 N3 0.024
L1 N3 2 2.56462716755u
.ends WE-PD_7332_744778003_3u3
*******
.subckt WE-PD_7332_744778004_4u7 1 2
Rp 1 2 8887.11646987
Cp 1 2 3.26091741837p
Rs 1 N3 0.042
L1 N3 2 4.06187686187u
.ends WE-PD_7332_744778004_4u7
*******
.subckt WE-PD_7332_744778005_0u54 1 2
Rp 1 2 1229.74139719
Cp 1 2 2.81710018376p
Rs 1 N3 0.0072
L1 N3 2 0.405637106674u
.ends WE-PD_7332_744778005_0u54
*******
.subckt WE-PD_7332_74477810_10u 1 2
Rp 1 2 14371.7275969
Cp 1 2 3.06494111157p
Rs 1 N3 0.068
L1 N3 2 7.79780559887u
.ends WE-PD_7332_74477810_10u
*******
.subckt WE-PD_7332_744778112_12u 1 2
Rp 1 2 16520.2293361
Cp 1 2 3.43671378309p
Rs 1 N3 0.076
L1 N3 2 9.86176498616u
.ends WE-PD_7332_744778112_12u
*******
.subckt WE-PD_7332_744778115_15u 1 2
Rp 1 2 22047.7802689
Cp 1 2 2.94868309515p
Rs 1 N3 0.1
L1 N3 2 13.1759854422u
.ends WE-PD_7332_744778115_15u
*******
.subckt WE-PD_7332_744778118_18u 1 2
Rp 1 2 23442.984673
Cp 1 2 3.33396069523p
Rs 1 N3 0.114
L1 N3 2 14.3694967628u
.ends WE-PD_7332_744778118_18u
*******
.subckt WE-PD_7332_744778127_27u 1 2
Rp 1 2 29087.5887631
Cp 1 2 3.4842205739p
Rs 1 N3 0.14
L1 N3 2 23.1463214499u
.ends WE-PD_7332_744778127_27u
*******
.subckt WE-PD_7332_744778133_33u 1 2
Rp 1 2 32451.612057
Cp 1 2 3.8300734141p
Rs 1 N3 0.153
L1 N3 2 25.3774240703u
.ends WE-PD_7332_744778133_33u
*******
.subckt WE-PD_7332_744778139_39u 1 2
Rp 1 2 41433.6642926
Cp 1 2 3.07597814933p
Rs 1 N3 0.214
L1 N3 2 31.098539109u
.ends WE-PD_7332_744778139_39u
*******
.subckt WE-PD_7332_744778147_47u 1 2
Rp 1 2 48650.9889075
Cp 1 2 3.34473024276p
Rs 1 N3 0.315
L1 N3 2 39.1639576114u
.ends WE-PD_7332_744778147_47u
*******
.subckt WE-PD_7332_744778156_56u 1 2
Rp 1 2 54236.4427989
Cp 1 2 3.56528937344p
Rs 1 N3 0.322
L1 N3 2 46.7472808258u
.ends WE-PD_7332_744778156_56u
*******
.subckt WE-PD_7332_744778182_82u 1 2
Rp 1 2 73920.3213959
Cp 1 2 3.66660676379p
Rs 1 N3 0.479
L1 N3 2 72.7163371541u
.ends WE-PD_7332_744778182_82u
*******
.subckt WE-PD_7332_74477820_100u 1 2
Rp 1 2 65000
Cp 1 2 3.5p
Rs 1 N3 0.585
L1 N3 2 90u
.ends WE-PD_7332_74477820_100u
*******
.subckt WE-PD_7332_744778212_120u 1 2
Rp 1 2 78183.3998498
Cp 1 2 3.10879750953p
Rs 1 N3 0.634
L1 N3 2 92.7530315334u
.ends WE-PD_7332_744778212_120u
*******
.subckt WE-PD_7332_744778215_150u 1 2
Rp 1 2 90182.9907411
Cp 1 2 3.82610257368p
Rs 1 N3 0.72
L1 N3 2 128.618162736u
.ends WE-PD_7332_744778215_150u
*******
.subckt WE-PD_7332_744778218_180u 1 2
Rp 1 2 122686.047456
Cp 1 2 2.96881569994p
Rs 1 N3 0.96
L1 N3 2 153.788184817u
.ends WE-PD_7332_744778218_180u
*******
.subckt WE-PD_7332_744778222_220u 1 2
Rp 1 2 144955.490273
Cp 1 2 3.83371324993p
Rs 1 N3 1.22
L1 N3 2 194.128533701u
.ends WE-PD_7332_744778222_220u
*******
.subckt WE-PD_7332_744778233_330u 1 2
Rp 1 2 190366.905413
Cp 1 2 3.82078679735p
Rs 1 N3 2.28
L1 N3 2 283.542394332u
.ends WE-PD_7332_744778233_330u
*******
.subckt WE-PD_7332_744778239_390u 1 2
Rp 1 2 184242.489449
Cp 1 2 3.98514039572p
Rs 1 N3 2.49
L1 N3 2 324.897187206u
.ends WE-PD_7332_744778239_390u
*******
.subckt WE-PD_7332_74477824_470u 1 2
Rp 1 2 187991.752291
Cp 1 2 3.94647112544p
Rs 1 N3 2.6
L1 N3 2 402.122235065u
.ends WE-PD_7332_74477824_470u
*******
.subckt WE-PD_7332_74477825_560u 1 2
Rp 1 2 184925.223731
Cp 1 2 4.11804015268p
Rs 1 N3 3
L1 N3 2 459.460469561u
.ends WE-PD_7332_74477825_560u
*******
.subckt WE-PD_7332_74477826_680u 1 2
Rp 1 2 210302.691304
Cp 1 2 4.02469121246p
Rs 1 N3 4.5
L1 N3 2 572.154405014u
.ends WE-PD_7332_74477826_680u
*******
.subckt WE-PD_7332_744778270_270u 1 2
Rp 1 2 147574.231316
Cp 1 2 4.4241022573p
Rs 1 N3 1.44
L1 N3 2 219.384019027u
.ends WE-PD_7332_744778270_270u
*******
.subckt WE-PD_7332_74477828_820u 1 2
Rp 1 2 372995.147279
Cp 1 2 4.41613646321p
Rs 1 N3 5.07
L1 N3 2 657.025953673u
.ends WE-PD_7332_74477828_820u
*******
.subckt WE-PD_7332_74477830_1000u 1 2
Rp 1 2 124583.875664
Cp 1 2 9.625193217p
Rs 1 N3 5.57
L1 N3 2 418.147154636u
.ends WE-PD_7332_74477830_1000u
*******
.subckt WE-PD_7332_7447783015_1u5 1 2
Rp 1 2 1060
Cp 1 2 3.397p
Rs 1 N3 0.012
L1 N3 2 1.41u
.ends WE-PD_7332_7447783015_1u5
*******
.subckt WE-PD_7332_7447783022_2u2 1 2
Rp 1 2 1644
Cp 1 2 3.131p
Rs 1 N3 0.0155
L1 N3 2 2.11u
.ends WE-PD_7332_7447783022_2u2
*******
.subckt WE-PD_7332_7447783033_3u3 1 2
Rp 1 2 2339
Cp 1 2 3.477p
Rs 1 N3 0.018
L1 N3 2 2.88u
.ends WE-PD_7332_7447783033_3u3
*******
.subckt WE-PD_7332_7447783047_4u7 1 2
Rp 1 2 4208
Cp 1 2 3.56p
Rs 1 N3 0.027
L1 N3 2 4.08u
.ends WE-PD_7332_7447783047_4u7
*******
.subckt WE-PD_7332_7447783068_6u8 1 2
Rp 1 2 5309
Cp 1 2 3.232p
Rs 1 N3 0.033
L1 N3 2 6.39u
.ends WE-PD_7332_7447783068_6u8
*******
.subckt WE-PD_7332_7447783100_10u 1 2
Rp 1 2 8092
Cp 1 2 2.937p
Rs 1 N3 0.056
L1 N3 2 9.541u
.ends WE-PD_7332_7447783100_10u
*******
.subckt WE-PD_7332_7447783101_100u 1 2
Rp 1 2 59499
Cp 1 2 4.267p
Rs 1 N3 0.39
L1 N3 2 96.9u
.ends WE-PD_7332_7447783101_100u
*******
.subckt WE-PD_7332_7447783102_1000u 1 2
Rp 1 2 226939
Cp 1 2 5.4977p
Rs 1 N3 4
L1 N3 2 950.14u
.ends WE-PD_7332_7447783102_1000u
*******
.subckt WE-PD_7332_7447783150_15u 1 2
Rp 1 2 12813
Cp 1 2 3.463p
Rs 1 N3 0.068
L1 N3 2 13.88u
.ends WE-PD_7332_7447783150_15u
*******
.subckt WE-PD_7332_7447783151_150u 1 2
Rp 1 2 80323